/*--------------------------------*- C++ -*----------------------------------*\
  =========                 |
  \\      /  F ield         | OpenFOAM: The Open Source CFD Toolbox
   \\    /   O peration     | Website:  https://openfoam.org
    \\  /    A nd           | Version:  7
     \\/     M anipulation  |
\*---------------------------------------------------------------------------*/
FoamFile
{
    version     2.0;
    format      ascii;
    class       polyBoundaryMesh;
    location    "constant/polyMesh";
    object      boundary;
}
// * * * * * * * * * * * * * * * * * * * * * * * * * * * * * * * * * * * * * //

6
(
    inlet
    {
        type            patch;
        nFaces          100;
        startFace       118900;
    }
    outlet
    {
        type            patch;
        nFaces          100;
        startFace       119000;
    }
    airfoil
    {
        type            wall;
        inGroups        List<word> 1(wall);
        nFaces          800;
        startFace       119100;
    }
    top
    {
        type            wall;
        inGroups        List<word> 1(wall);
        nFaces          600;
        startFace       119900;
    }
    bottom
    {
        type            wall;
        inGroups        List<word> 1(wall);
        nFaces          600;
        startFace       120500;
    }
    defaultFaces
    {
        type            empty;
        inGroups        List<word> 1(empty);
        nFaces          120000;
        startFace       121100;
    }
)

// ************************************************************************* //
