/*--------------------------------*- C++ -*----------------------------------*\
  =========                 |
  \\      /  F ield         | OpenFOAM: The Open Source CFD Toolbox
   \\    /   O peration     | Website:  https://openfoam.org
    \\  /    A nd           | Version:  7
     \\/     M anipulation  |
\*---------------------------------------------------------------------------*/
FoamFile
{
    version     2.0;
    format      ascii;
    class       polyBoundaryMesh;
    location    "constant/polyMesh";
    object      boundary;
}
// * * * * * * * * * * * * * * * * * * * * * * * * * * * * * * * * * * * * * //

6
(
    inlet
    {
        type            patch;
        nFaces          400;
        startFace       1204890;
    }
    outlet
    {
        type            patch;
        nFaces          400;
        startFace       1205290;
    }
    airfoil
    {
        type            wall;
        inGroups        List<word> 1(wall);
        nFaces          2400;
        startFace       1205690;
    }
    top
    {
        type            wall;
        inGroups        List<word> 1(wall);
        nFaces          1510;
        startFace       1208090;
    }
    bottom
    {
        type            wall;
        inGroups        List<word> 1(wall);
        nFaces          1510;
        startFace       1209600;
    }
    defaultFaces
    {
        type            empty;
        inGroups        List<word> 1(empty);
        nFaces          1208000;
        startFace       1211110;
    }
)

// ************************************************************************* //
