/*--------------------------------*- C++ -*----------------------------------*\
  =========                 |
  \\      /  F ield         | OpenFOAM: The Open Source CFD Toolbox
   \\    /   O peration     | Website:  https://openfoam.org
    \\  /    A nd           | Version:  7
     \\/     M anipulation  |
\*---------------------------------------------------------------------------*/
FoamFile
{
    version     2.0;
    format      ascii;
    class       polyBoundaryMesh;
    location    "constant/polyMesh";
    object      boundary;
}
// * * * * * * * * * * * * * * * * * * * * * * * * * * * * * * * * * * * * * //

6
(
    inlet
    {
        type            patch;
        nFaces          100;
        startFace       182180;
    }
    outlet
    {
        type            patch;
        nFaces          100;
        startFace       182280;
    }
    airfoil
    {
        type            wall;
        inGroups        List<word> 1(wall);
        nFaces          1600;
        startFace       182380;
    }
    top
    {
        type            wall;
        inGroups        List<word> 1(wall);
        nFaces          920;
        startFace       183980;
    }
    bottom
    {
        type            wall;
        inGroups        List<word> 1(wall);
        nFaces          920;
        startFace       184900;
    }
    defaultFaces
    {
        type            empty;
        inGroups        List<word> 1(empty);
        nFaces          184000;
        startFace       185820;
    }
)

// ************************************************************************* //
