/*--------------------------------*- C++ -*----------------------------------*\
  =========                 |
  \\      /  F ield         | OpenFOAM: The Open Source CFD Toolbox
   \\    /   O peration     | Website:  https://openfoam.org
    \\  /    A nd           | Version:  7
     \\/     M anipulation  |
\*---------------------------------------------------------------------------*/
FoamFile
{
    version     2.0;
    format      ascii;
    class       polyBoundaryMesh;
    location    "constant/polyMesh";
    object      boundary;
}
// * * * * * * * * * * * * * * * * * * * * * * * * * * * * * * * * * * * * * //

6
(
    inlet
    {
        type            patch;
        nFaces          150;
        startFace       286090;
    }
    outlet
    {
        type            patch;
        nFaces          150;
        startFace       286240;
    }
    airfoil
    {
        type            wall;
        inGroups        List<word> 1(wall);
        nFaces          1600;
        startFace       286390;
    }
    top
    {
        type            wall;
        inGroups        List<word> 1(wall);
        nFaces          960;
        startFace       287990;
    }
    bottom
    {
        type            wall;
        inGroups        List<word> 1(wall);
        nFaces          960;
        startFace       288950;
    }
    defaultFaces
    {
        type            empty;
        inGroups        List<word> 1(empty);
        nFaces          288000;
        startFace       289910;
    }
)

// ************************************************************************* //
