/*--------------------------------*- C++ -*----------------------------------*\
  =========                 |
  \\      /  F ield         | OpenFOAM: The Open Source CFD Toolbox
   \\    /   O peration     | Website:  https://openfoam.org
    \\  /    A nd           | Version:  7
     \\/     M anipulation  |
\*---------------------------------------------------------------------------*/
FoamFile
{
    version     2.0;
    format      ascii;
    class       polyBoundaryMesh;
    location    "constant/polyMesh";
    object      boundary;
}
// * * * * * * * * * * * * * * * * * * * * * * * * * * * * * * * * * * * * * //

6
(
    inlet
    {
        type            patch;
        nFaces          500;
        startFace       2395100;
    }
    outlet
    {
        type            patch;
        nFaces          500;
        startFace       2395600;
    }
    airfoil
    {
        type            wall;
        inGroups        List<word> 1(wall);
        nFaces          4000;
        startFace       2396100;
    }
    top
    {
        type            wall;
        inGroups        List<word> 1(wall);
        nFaces          2400;
        startFace       2400100;
    }
    bottom
    {
        type            wall;
        inGroups        List<word> 1(wall);
        nFaces          2400;
        startFace       2402500;
    }
    defaultFaces
    {
        type            empty;
        inGroups        List<word> 1(empty);
        nFaces          2400000;
        startFace       2404900;
    }
)

// ************************************************************************* //
