/*--------------------------------*- C++ -*----------------------------------*\
  =========                 |
  \\      /  F ield         | OpenFOAM: The Open Source CFD Toolbox
   \\    /   O peration     | Website:  https://openfoam.org
    \\  /    A nd           | Version:  7
     \\/     M anipulation  |
\*---------------------------------------------------------------------------*/
FoamFile
{
    version     2.0;
    format      ascii;
    class       polyBoundaryMesh;
    location    "constant/polyMesh";
    object      boundary;
}
// * * * * * * * * * * * * * * * * * * * * * * * * * * * * * * * * * * * * * //

6
(
    inlet
    {
        type            patch;
        nFaces          200;
        startFace       573160;
    }
    outlet
    {
        type            patch;
        nFaces          200;
        startFace       573360;
    }
    airfoil
    {
        type            wall;
        inGroups        List<word> 1(wall);
        nFaces          2400;
        startFace       573560;
    }
    top
    {
        type            wall;
        inGroups        List<word> 1(wall);
        nFaces          1440;
        startFace       575960;
    }
    bottom
    {
        type            wall;
        inGroups        List<word> 1(wall);
        nFaces          1440;
        startFace       577400;
    }
    defaultFaces
    {
        type            empty;
        inGroups        List<word> 1(empty);
        nFaces          576000;
        startFace       578840;
    }
)

// ************************************************************************* //
