/*--------------------------------*- C++ -*----------------------------------*\
  =========                 |
  \\      /  F ield         | OpenFOAM: The Open Source CFD Toolbox
   \\    /   O peration     | Website:  https://openfoam.org
    \\  /    A nd           | Version:  7
     \\/     M anipulation  |
\*---------------------------------------------------------------------------*/
FoamFile
{
    version     2.0;
    format      ascii;
    class       polyBoundaryMesh;
    location    "constant/polyMesh";
    object      boundary;
}
// * * * * * * * * * * * * * * * * * * * * * * * * * * * * * * * * * * * * * //

6
(
    inlet
    {
        type            patch;
        nFaces          250;
        startFace       522900;
    }
    outlet
    {
        type            patch;
        nFaces          250;
        startFace       523150;
    }
    airfoil
    {
        type            wall;
        inGroups        List<word> 1(wall);
        nFaces          1600;
        startFace       523400;
    }
    top
    {
        type            wall;
        inGroups        List<word> 1(wall);
        nFaces          1050;
        startFace       525000;
    }
    bottom
    {
        type            wall;
        inGroups        List<word> 1(wall);
        nFaces          1050;
        startFace       526050;
    }
    defaultFaces
    {
        type            empty;
        inGroups        List<word> 1(empty);
        nFaces          525000;
        startFace       527100;
    }
)

// ************************************************************************* //
