/*--------------------------------*- C++ -*----------------------------------*\
  =========                 |
  \\      /  F ield         | OpenFOAM: The Open Source CFD Toolbox
   \\    /   O peration     | Website:  https://openfoam.org
    \\  /    A nd           | Version:  7
     \\/     M anipulation  |
\*---------------------------------------------------------------------------*/
FoamFile
{
    version     2.0;
    format      ascii;
    class       polyBoundaryMesh;
    location    "constant/polyMesh";
    object      boundary;
}
// * * * * * * * * * * * * * * * * * * * * * * * * * * * * * * * * * * * * * //

6
(
    inlet
    {
        type            patch;
        nFaces          300;
        startFace       741460;
    }
    outlet
    {
        type            patch;
        nFaces          300;
        startFace       741760;
    }
    airfoil
    {
        type            wall;
        inGroups        List<word> 1(wall);
        nFaces          2000;
        startFace       742060;
    }
    top
    {
        type            wall;
        inGroups        List<word> 1(wall);
        nFaces          1240;
        startFace       744060;
    }
    bottom
    {
        type            wall;
        inGroups        List<word> 1(wall);
        nFaces          1240;
        startFace       745300;
    }
    defaultFaces
    {
        type            empty;
        inGroups        List<word> 1(empty);
        nFaces          744000;
        startFace       746540;
    }
)

// ************************************************************************* //
