/*--------------------------------*- C++ -*----------------------------------*\
  =========                 |
  \\      /  F ield         | OpenFOAM: The Open Source CFD Toolbox
   \\    /   O peration     | Website:  https://openfoam.org
    \\  /    A nd           | Version:  7
     \\/     M anipulation  |
\*---------------------------------------------------------------------------*/
FoamFile
{
    version     2.0;
    format      ascii;
    class       polyBoundaryMesh;
    location    "constant/polyMesh";
    object      boundary;
}
// * * * * * * * * * * * * * * * * * * * * * * * * * * * * * * * * * * * * * //

6
(
    inlet
    {
        type            patch;
        nFaces          200;
        startFace       413960;
    }
    outlet
    {
        type            patch;
        nFaces          200;
        startFace       414160;
    }
    airfoil
    {
        type            wall;
        inGroups        List<word> 1(wall);
        nFaces          1600;
        startFace       414360;
    }
    top
    {
        type            wall;
        inGroups        List<word> 1(wall);
        nFaces          1040;
        startFace       415960;
    }
    bottom
    {
        type            wall;
        inGroups        List<word> 1(wall);
        nFaces          1040;
        startFace       417000;
    }
    defaultFaces
    {
        type            empty;
        inGroups        List<word> 1(empty);
        nFaces          416000;
        startFace       418040;
    }
)

// ************************************************************************* //
