
// User: bsp
// Mesh generated on 04/24/2022 22:34:10

// c = 3
// t = 3
// lf = -6
// lw = 6
// ht = 6
// hb = -6
// alpha = 10
// n_foil = 10
// n_north = 10
// n_east = 10
// n_south = 10
// n_west = 10
// e_foil = 1
// e_north = 1
// e_east = 1
// e_south = 1
// e_west = 1

FoamFile
{
 version 2.0;
 format  ascii;
 class   dictionary;
 object  blockMeshDict;
}

convertToMeters  1.0;

vertices
(
    ( 2.954423259036624 0.520944533000791 -0.05) // 0
    ( -0.520944533000791 2.954423259036624 -0.05) // 1
    ( -2.954423259036624 -0.520944533000791 -0.05) // 2
    ( 0.520944533000791 -2.954423259036624 -0.05) // 3
    ( 6 0.520944533000791 -0.05) // 4
    ( 6 6 -0.05) // 5
    ( 2.954423259036624 6 -0.05) // 6
    ( -0.520944533000791 6 -0.05) // 7
    ( -6 6 -0.05) // 8
    ( -6 2.954423259036624 -0.05) // 9
    ( -6 -0.520944533000791 -0.05) // 10
    ( -6 -6 -0.05) // 11
    ( -2.954423259036624 -6 -0.05) // 12
    ( 0.520944533000791 -6 -0.05) // 13
    ( 6 -6 -0.05) // 14
    ( 6 -2.954423259036624 -0.05) // 15
);

blocks
(
    // block 0
   hex (3 15 4 0 19 31 20 16) (10 10 1) simpleGrading ( 1 1 1)
    // block 1
   hex (0 4 5 6 16 20 21 22) (10 10 1) simpleGrading ( 1 1 1)
    // block 2
   hex (0 6 7 1 16 22 23 17) (10 10 1) simpleGrading ( 1 1 1)
    // block 3
   hex (1 7 8 9 17 23 24 25) (10 10 1) simpleGrading ( 1 1 1)
    // block 4
   hex (1 9 10 2 17 25 26 18) (10 10 1) simpleGrading ( 1 1 1)
    // block 5
   hex (2 10 11 12 18 26 27 28) (10 10 1) simpleGrading ( 1 1 1)
    // block 6
   hex (2 12 13 3 18 28 29 19) (10 10 1) simpleGrading ( 1 1 1)
    // block 7
   hex (3 13 14 15 19 29 30 31) (10 10 1) simpleGrading ( 1 1 1)
);



boundary
(
 inlet
 {
     type patch;
     faces
     (
         (8 24 25 9)
         (9 25 26 10)
         (10 26 27 11)
     );
 }
 outlet
 {
     type patch;
     faces
     (
         (14 30 31 15)
         (15 31 20 4)
         (4 20 21 5)
     );
 }
 airfoil
 {
     type wall;
     faces
     (
         (0 16 17 1)
         (1 17 18 2)
         (2 18 19 3)
         (3 19 20 4)
     );
 }
 top
 {
     type symmetryPlane;
     faces
     (
         (5 22 21 6)
         (6 23 22 7)
         (7 24 23 8)
     );
 }
 bottom
 {
     type symmetryPlane;
     faces
     (
         (11 27 28 12)
         (12 28 29 13)
         (13 29 30 14)
     );
 }

);
