
// User: bsp
// Mesh generated on 05/06/2022 17:28:00

// c = 3
// t = 0.25
// lf = -6
// lw = 6
// ht = 6
// hb = -6
// alpha = -20
// n_foil = 240
// n_north = 70
// n_east = 80
// n_south = 60
// n_west = 40
// e_foil = 1
// e_north = 20
// e_east = 10
// e_south = 17
// e_west = 15

FoamFile
{
 version 2.0;
 format  ascii;
 class   dictionary;
 object  blockMeshDict;
}

convertToMeters  1.0;

vertices
(
    ( 2.8190778623577253 -1.0260604299770062 -0.05) // 0
    ( 0.08550503583141718 0.2349231551964771 -0.05) // 1
    ( -2.8190778623577253 1.0260604299770062 -0.05) // 2
    ( -0.08550503583141718 -0.2349231551964771 -0.05) // 3
    ( 6 -1.0260604299770062 -0.05) // 4
    ( 6 6 -0.05) // 5
    ( 2.8190778623577253 6 -0.05) // 6
    ( 0.08550503583141718 6 -0.05) // 7
    ( -2.8190778623577253 6 -0.05) // 8
    ( -6 6 -0.05) // 9
    ( -6 1.0260604299770062 -0.05) // 10
    ( -6 -6 -0.05) // 11
    ( -2.8190778623577253 -6 -0.05) // 12
    ( -0.08550503583141718 -6 -0.05) // 13
    ( 2.8190778623577253 -6 -0.05) // 14
    ( 6 -6 -0.05) // 15
    ( 2.8190778623577253 -1.0260604299770062 0.05) // 16
    ( 0.08550503583141718 0.2349231551964771 0.05) // 17
    ( -2.8190778623577253 1.0260604299770062 0.05) // 18
    ( -0.08550503583141718 -0.2349231551964771 0.05) // 19
    ( 6 -1.0260604299770062 0.05) // 20
    ( 6 6 0.05) // 21
    ( 2.8190778623577253 6 0.05) // 22
    ( 0.08550503583141718 6 0.05) // 23
    ( -2.8190778623577253 6 0.05) // 24
    ( -6 6 0.05) // 25
    ( -6 1.0260604299770062 0.05) // 26
    ( -6 -6 0.05) // 27
    ( -2.8190778623577253 -6 0.05) // 28
    ( -0.08550503583141718 -6 0.05) // 29
    ( 2.8190778623577253 -6 0.05) // 30
    ( 6 -6 0.05) // 31
);

blocks
(
    // block 0
   hex (0 4 5 6 16 20 21 22) (80 70 1) simpleGrading ( 10 20 1)
    // block 1
   hex (0 6 7 1 16 22 23 17) (70 240 1) simpleGrading ( 20 1 1)
    // block 2
   hex (1 7 8 2 17 23 24 18) (70 240 1) simpleGrading ( 20 1 1)
    // block 3
   hex (2 8 9 10 18 24 25 26) (70 40 1) simpleGrading ( 20 15 1)
    // block 4
   hex (2 10 11 12 18 26 27 28) (40 60 1) simpleGrading ( 15 17 1)
    // block 5
   hex (2 12 13 3 18 28 29 19) (60 240 1) simpleGrading ( 17 1 1)
    // block 6
   hex (3 13 14 0 19 29 30 16) (60 240 1) simpleGrading ( 17 1 1)
    // block 7
   hex (0 14 15 4 16 30 31 20) (60 80 1) simpleGrading ( 17 10 1)
);



boundary
(
 inlet
 {
     type patch;
     faces
     (
         (9 25 26 10)
         (10 26 27 11)
     );
 }
 outlet
 {
     type patch;
     faces
     (
         (15 31 20 4)
         (4 20 21 5)
     );
 }
 airfoil
 {
     type wall;
     faces
     (
         (0 16 17 1)
         (1 17 18 2)
         (2 18 19 3)
         (3 19 16 0)
     );
 }
 top
 {
     type wall;
     faces
     (
         (5 22 21 6)
         (6 23 22 7)
         (7 24 23 8)
         (8 25 24 9)
     );
 }
 bottom
 {
     type wall;
     faces
     (
         (11 27 28 12)
         (12 28 29 13)
         (13 29 30 14)
         (14 30 31 15)
     );
 }

);
