/*--------------------------------*- C++ -*----------------------------------*\
  =========                 |
  \\      /  F ield         | OpenFOAM: The Open Source CFD Toolbox
   \\    /   O peration     | Website:  https://openfoam.org
    \\  /    A nd           | Version:  7
     \\/     M anipulation  |
\*---------------------------------------------------------------------------*/
FoamFile
{
    version     2.0;
    format      ascii;
    class       volScalarField;
    object      T;
}
// * * * * * * * * * * * * * * * * * * * * * * * * * * * * * * * * * * * * * //

dimensions      [0 0 0 1 0 0 0];

internalField   uniform 100;

boundaryField
{
    inlet
    {
        type            fixedValue;
        value           uniform 100;
    }

    outlet
    {
        type            inletOutlet;
        inletValue      uniform 100;
        value           uniform 100;
    }

    bottom
    {
        type            fixedValue;
        value           uniform 100;
    }

    top
    {
        type            fixedValue;
        value           uniform 100;
    }

    airfoil
    {
        type            zeroGradient;
    }

    defaultFaces
    {
        type            empty;
    }
}

// ************************************************************************* //
