/*--------------------------------*- C++ -*----------------------------------*\
  =========                 |
  \\      /  F ield         | OpenFOAM: The Open Source CFD Toolbox
   \\    /   O peration     | Website:  https://openfoam.org
    \\  /    A nd           | Version:  7
     \\/     M anipulation  |
\*---------------------------------------------------------------------------*/
FoamFile
{
    version     2.0;
    format      ascii;
    class       volScalarField;
    object      p;
}
// * * * * * * * * * * * * * * * * * * * * * * * * * * * * * * * * * * * * * //

dimensions      [1 -1 -2 0 0 0 0];

internalField   uniform 1;

boundaryField
{
    inlet
    {
        type            fixedValue;
        value           uniform 1;
    }

    outlet
    {
        type            zeroGradient;
    }

    bottom_fore
    {
        type            fixedValue;
        value           uniform 1;
    }

    top_fore
    {
        type            fixedValue;
        value           uniform 1;
    }

    bottom_wake
    {
        type            fixedValue;
        value           uniform 1;
    }

    top_wake
    {
        type            fixedValue;
        value           uniform 1;
    }

    airfoil
    {
        type            zeroGradient;
    }

    defaultFaces
    {
        type            empty;
    }
}

// ************************************************************************* //
