/*--------------------------------*- C++ -*----------------------------------*\
  =========                 |
  \\      /  F ield         | OpenFOAM: The Open Source CFD Toolbox
   \\    /   O peration     | Website:  https://openfoam.org
    \\  /    A nd           | Version:  7
     \\/     M anipulation  |
\*---------------------------------------------------------------------------*/
FoamFile
{
    version     2.0;
    format      ascii;
    class       polyBoundaryMesh;
    location    "constant/polyMesh";
    object      boundary;
}
// * * * * * * * * * * * * * * * * * * * * * * * * * * * * * * * * * * * * * //

6
(
    inlet
    {
        type            patch;
        nFaces          300;
        startFace       645660;
    }
    outlet
    {
        type            patch;
        nFaces          300;
        startFace       645960;
    }
    airfoil
    {
        type            wall;
        inGroups        List<word> 1(wall);
        nFaces          1920;
        startFace       646260;
    }
    top
    {
        type            wall;
        inGroups        List<word> 1(wall);
        nFaces          1080;
        startFace       648180;
    }
    bottom
    {
        type            wall;
        inGroups        List<word> 1(wall);
        nFaces          1080;
        startFace       649260;
    }
    defaultFaces
    {
        type            empty;
        inGroups        List<word> 1(empty);
        nFaces          648000;
        startFace       650340;
    }
)

// ************************************************************************* //
