/*--------------------------------*- C++ -*----------------------------------*\
  =========                 |
  \\      /  F ield         | OpenFOAM: The Open Source CFD Toolbox
   \\    /   O peration     | Website:  https://openfoam.org
    \\  /    A nd           | Version:  7
     \\/     M anipulation  |
\*---------------------------------------------------------------------------*/
FoamFile
{
    version     2.0;
    format      ascii;
    class       polyBoundaryMesh;
    location    "constant/polyMesh";
    object      boundary;
}
// * * * * * * * * * * * * * * * * * * * * * * * * * * * * * * * * * * * * * //

6
(
    inlet
    {
        type            patch;
        nFaces          130;
        startFace       82510;
    }
    outlet
    {
        type            patch;
        nFaces          130;
        startFace       82640;
    }
    airfoil
    {
        type            wall;
        inGroups        List<word> 1(wall);
        nFaces          480;
        startFace       82770;
    }
    top
    {
        type            wall;
        inGroups        List<word> 1(wall);
        nFaces          320;
        startFace       83250;
    }
    bottom
    {
        type            wall;
        inGroups        List<word> 1(wall);
        nFaces          320;
        startFace       83570;
    }
    defaultFaces
    {
        type            empty;
        inGroups        List<word> 1(empty);
        nFaces          83200;
        startFace       83890;
    }
)

// ************************************************************************* //
