/*--------------------------------*- C++ -*----------------------------------*\
  =========                 |
  \\      /  F ield         | OpenFOAM: The Open Source CFD Toolbox
   \\    /   O peration     | Website:  https://openfoam.org
    \\  /    A nd           | Version:  7
     \\/     M anipulation  |
\*---------------------------------------------------------------------------*/
FoamFile
{
    version     2.0;
    format      ascii;
    class       polyBoundaryMesh;
    location    "constant/polyMesh";
    object      boundary;
}
// * * * * * * * * * * * * * * * * * * * * * * * * * * * * * * * * * * * * * //

6
(
    inlet
    {
        type            patch;
        nFaces          130;
        startFace       154790;
    }
    outlet
    {
        type            patch;
        nFaces          130;
        startFace       154920;
    }
    airfoil
    {
        type            wall;
        inGroups        List<word> 1(wall);
        nFaces          960;
        startFace       155050;
    }
    top
    {
        type            wall;
        inGroups        List<word> 1(wall);
        nFaces          600;
        startFace       156010;
    }
    bottom
    {
        type            wall;
        inGroups        List<word> 1(wall);
        nFaces          600;
        startFace       156610;
    }
    defaultFaces
    {
        type            empty;
        inGroups        List<word> 1(empty);
        nFaces          156000;
        startFace       157210;
    }
)

// ************************************************************************* //
